scripts/data/pwf/ESE/ESE_base_ponta.pwf
TITU
CASO BASE - 2020
DOPC IMPR
(Op) E (Op) E (Op) E (Op) E (Op) E (Op) E (Op) E (Op) E (Op) E (Op) E
FLAT L QLIM L VLIM L CREM L CTAP L NEWT L RCVG L
99999
(CASO BASE - 2020
DBAR
(Num)OETGb(   nome   )Gl( V)( A)( Pg)( Qg)( Qn)( Qm)(Bc  )( Pl)( Ql)( Sh)Are(Vf)M(1)(2)(3)(4)(5)(6)  
 1000 L2 2JDM 69       11015  0.          -999999999                      101000                
 1010 L0 2ATL 69       11028  0.                                          121000                
 1011 L0 1ATL 13-I     11028  0.                          11.44  4.4 3.05 111000                
 1012 L0 1ATL 13-II    11028  0.                          14.07 5.67 6.09 111000                
 1030 L0 2S. NRT       11028  0.                                          121000                
 1040 L0 2GRU 69       11028  0.                                          121000                
 1041 L0 1GRU 13-I     11028  0.                           9.61 2.59 4.06 111000                
 1042 L0 1GRU 13-II    11028  0.                           6.94 1.42   0. 111000                
 1060 L0 2SCT 69       11028  0.                                          121000                
 1061 L0 1SCT 13       11028  0.                           2.97 0.61 1.02 111000                
 1080 L0 2D. ITP       11028  0.                                          121000                
 1090 L0 2ITP 69       11028  0.                                          121000                
 1091 L0 1ITP 13       11028  0.                           2.92 1.16 1.02 111000                
 1100 L0 2SECC. SLG    11028  0.                                          121000                
 1110 L0 2SLG 69       11028  0.                                          121000                
 1111 L0 1SLG 13       11028  0.                           2.73 1.69 1.02 111000                
 1160 L0 2BLZ I-69     11028  0.                                          121000                
 1170 L0 2BLZ II-69    11028  0.                                          121000                
 1200 L0 2TCC 69       11028  0.                                          121000                
 1201 L0 1TCC 13-I     11028  0.                           7.77  0.9   0. 111000                
 1202 L0 1TCC 13-II    11028  0.                            5.1 2.56 3.05 111000
 1210 L0 2CTN 69       11028  0.                                          121000                
 1211 L0 1CTN 13-I     11028  0.                           9.25 2.68 3.05 111000                
 1212 L0 1CTN 13-II    11028  0.                           6.55 1.88 3.05 111000                
 1220 L0 2SECC. CMP    11028  0.                                          121000                
 1239 L0 2ITG 69       11028  0.                             0. 0.01   0. 121000                
 1269 L0 2NRT 69       11028  0.                           0.28 -0.3   0. 121000                
 1279 L0 2CMP 69       11028  0.                           4.48-0.04   0. 121000                
 1299 D0 2SRZ 69       11028  0.                                          121000                
 1309 L0 2BSS 69       11028  0.                                          121000                
 2000 L2 2ITB 69       11015  0.          -999999999                      201000                
 2001 L0 1ITB 13       11028  0.                           8.59 2.17 3.05 211000                
 2010 L0 2FPL 69       11028  0.                                          221000                
 2011 L0 1FPL 13       11028  0.                           7.07 3.43 2.03 211000                
 2020 L0 2CJB 69       11028  0.                                          221000                
 2021 L0 1CJB 13       11028  0.                           3.61 1.02 1.02 211000                
 2030 L0 2LGT 69       11028  0.                                          221000                
 2031 L0 1LGT 13       11028  0.                            9.9 3.53 3.05 211000                
 2040 L0 2SMS 69       11028  0.                                          221000                
 2041 L0 1SMS 13       11028  0.                           4.43 1.89 2.03 211000                
 2050 L0 2PVD 69       11028  0.                                          221000                
 2051 L0 1PVD 13       11028  0.                           1.48 0.35   0. 211000                
 2069 L0 2MRT 69       11028  0.                           1.39 0.21   0. 221000                
 2070 L0 2NSD 69       11028  0.                                          221000                
 2071 L0 1NSD 13       11028  0.                           4.77 2.68 1.02 211000                
 2079 L0 2SSA 69       11028  0.                            0.2-0.14   0. 221000                
 2080 L0 2GCD 69       11028  0.                                          221000                
 2081 L0 1GCD 13       11028  0.                           3.43 1.38 1.02 211000                
 2089 L0 2CQR 69       11028  0.                           0.01 0.07   0. 221000                
 2090 L0 2PTF 69       11028  0.                                          221000                
 2091 L0 1PTF 13       11028  0.                           6.02 1.74 2.03 211000                
 2100 L0 2PPR 69       11028  0.                                          221000                
 2101 L0 1PPR 13       11028  0.                           9.68 4.08 4.06 211000                
 2120 L0 2MTB 69       11028  0.                                          221000                
 2121 L0 1MTB 13       11028  0.                           2.92  0.8   0. 211000                
 2140 L0 2RCH 69       11028  0.                                          221000                
 2141 L0 1RCH 13       11028  0.                           5.76 1.15 1.02 211000                
 2150 L0 2D. CQR       11028  0.                                          221000                
 2170 L0 2MRI 69       11028  0.                                          221000                
 2171 L0 1MRI 13       11028  0.                           3.82 2.83 3.05 211000                
 2180 L0 2PRT 69       11028  0.                                          221000                
 2181 L0 1PRT 13       11028  0.                           2.77  0.6 1.02 211000                
 2190 L0 2NSG 69       11028  0.                                          221000                
 2191 L0 1NSG 13       11028  0.                           5.25 3.31 1.02 211000                
 2200 L0 2CMD 69       11028  0.                                          221000                
 2201 L0 1CMD 13       11028  0.                           2.83 1.39 2.03 211000                
 2210 L0 2MTA 69       11028  0.                                          221000                
 2211 L0 1MTA 13       11028  0.                           1.74 1.03 1.02 211000             
 2220 L0 2LGR 69       11028  0.                                          221000                
 2221 L0 1LGR 13       11028  0.                           0.75 0.23   0. 211000                
 2230 L0 2D. ILT       11028  0.                                          221000                
 2249 D1 2CGE BCQ      11028  0.    0    0    0    0                      231000                
 2259 D1 2UTE SJP      11028  0.    0    0    0    0                      241000                
 2269 D1 2UTE CPL      11028  0.    0    0    0    0                      251000                
 2279 D1 2UTE ILT      11028  0.    0    0    0    0                      261000                
 3000 L2 2PEN 69       11015  0.          -999999999                      301000                
 3010 L0 2CRP 69       11028  0.                                          321000                
 3011 L0 1CRP 13       11028  0.                           6.66 3.06 4.06 311000                
 3020 L0 2D. ADU       11028  0.                                          321000                
 3029 L0 2ADU 69       11028  0.                           0.04 0.05   0. 321000                
 3049 L0 2EBP 69       11028  0.                           1.32 0.14   0. 321000                
 3059 L0 2MZU 69       11028  0.                           2.39 0.39   0. 321000                
 4000 L2 2ZBU 69       11015  0.          -999999999                      401000                
 4010 L0 2XNG 69       11028  0.                                          401000                
 4011 L0 1XNG 13       11028  0.                           3.45 1.49 2.03 401000                
 4020 L0 2CRT 69       11028  0.                                          421000                
 4021 L0 1CRT 13       11028  0.                           1.66  0.9 1.02 411000                
 5000 L2 2NSC 69       11015  0.          -999999999                      501000                
 5010 L0 2ARJ 69       11028  0.                                          521000                
 5011 L0 1ARJ 13-I     11028  0.                           7.65  3.3 3.05 511000                
 5012 L0 1ARJ 13-II    11028  0.                           8.28 3.07 3.05 511000                
 5020 L0 2URB 69       11028  0.                                          521000                
 5021 L0 1URB 13-I     11028  0.                           6.53 2.33 3.05 511000                
 5022 L0 1URB 13-II    11028  0.                            8.7 3.45 3.05 511000                
 5023 L0 2D. URB       11028  0.                                          521000                
 5030 L0 2CBT 69       11028  0.                                          521000                
 5031 L0 1CBT 13-I     11028  0.                           9.81 4.82 6.09 511000                
 5045 L0 2D. APS       11028  0.                                          521000                
 5049 L0 2APS 69       11028  0.                           0.13 0.05   0. 521000                
 5050 L0 2D. MSQ       11028  0.                                          521000                
 5060 L0 2MSQ 69       11028  0.                                          521000                
 5061 L0 1MSQ 13       11028  0.                           3.56 2.62 2.03 511000                
 5070 L0 2SRY 69       11028  0.                                          521000                
 5071 L0 1SRY 13-I     11028  0.                           6.13 2.27 3.05 511000                
 5072 L0 1SRY 13-II    11028  0.                           6.43 2.01 3.05 511000                
 5085 L0 2D. UFS       11028  0.                                          521000                
 5089 L0 2UFS 69       11028  0.                            0.6 0.39   0. 521000                
 5099 L0 2UPGN 69      11028  0.                           2.92 1.24   0. 521000                
99999
DLIN
(De )d O d(Pa )NcEP ( R% )( X% )(Mvar)(Tap)(Tmn)(Tmx)(Phs)(Bc  )(Cn)(Ce)Ns(Cq)(1)(2)(3)(4)(5)(6)
 1000      1010 1 T   7.47  17.4  0.33                            56  63    56            
 1000      1040 1 T   5.61 11.36  0.19                            49  55    49            
 1000      1040 2 T   5.61 11.37  0.19                            49  55    49            
 1000      1060 2 T  22.01 18.99  0.25                            24  27    24            
 1000      1080 1 T  19.09 28.51  0.43                            36  41    36            
 1000      1160 1 T   4.67  9.51  0.15                            49  55    49            
 1000      1170 1 T   4.72  9.38  0.16                            49  55    49            
 1000      1200 1 T   4.51  9.88  0.18                            56  63    56            
 1000      1200 2 T   4.51  9.88  0.18                            56  63    56            
 1000      1210 1 T   6.75 16.24  0.31                            56  63    56            
 1000      1220 1 T   3.99 17.42  0.34                            85  94    85            
 1000      1220 2 T   3.99 17.42  0.34                            85  94    85            
 1010      1011 1 T   2.35  53.6       0.950.8551.045       1011  20  2516  25            
 1010      1012 2 T   2.35 48.14       0.950.8551.045       1012  20  2516  25            
 1030      1010 1      1.9  4.42  0.09                            56  63    56            
 1030      1269 1     0.02  0.05     0                            56  63    56            
 1040      1041 1 T    1.4 32.97         1. 0.85 1.05       1041  30  4016  40            
 1040      1042 2 T    1.4 32.94         1. 0.85 1.05       1042  30  4016  40            
 1060      1061 1 T    5.4 79.72       0.950.8551.045       1061  1012.51612.5            
 1060      1100 1    23.77 20.51  0.27                            24  27    24            
 1080      1090 1     2.72  2.34  0.03                            24  27    24            
 1080      1100 1     4.85  7.24  0.11                            36  41    36            
 1090      1091 1     10.4 116.5      1.0530.9471.158       1091   56.25326.25            
 1090      1091 2     10.4117.77      1.0530.9471.158       1091   5   532   5            
 1100      1110 1    10.29 15.35  0.23                            36  41    36            
 1110      1111 1     10.4119.52      1.0260.9231.128       1111   5   532   5            
 1110      1111 2     10.4142.21      1.0260.9231.128       1111   5 7.232 7.2            
 1160    D 2140 1     5.51 11.21  0.18                            49  55    49            
 1170      1239 1     3.32  4.96  0.07                            36  41    36            
 1170    D 2140 2     5.51 10.95  0.19                            49  55    49            
 1200      1201 1 T   2.35 49.79       0.950.8551.045       1201  20  2516  25            
 1200      1202 2 T   2.35 50.85       0.950.8551.045       1202  20  2516  25            
 1210      1030 1     0.67  1.62  0.03                            56  63    56            
 1210      1211 1 T   2.35 50.65         1. 0.85 1.05       1211  20  2516  25            
 1210      1212 2 T   2.35 49.49         1. 0.85 1.05       1212  20  2516  25            
 1220      1279 1     3.87 16.83  0.34                            85  94    85            
 1220      1299 1     5.15 12.79  0.23                            56  63    56            
 1220      1299 2     5.15 12.79  0.23                            56  63    56            
 1220      1309 1      3.4 14.82   0.3                            85  94    85            
 1309      1279 1     0.46  2.01  0.04                            85  94    85            
 2000      2001 1 T   1.73  22.5         1.                 2001  30  40    40            
 2000      2010 1 T  20.38 17.58  0.23                            24  27    24            
 2000      2010 2 T   5.89 15.07  0.25                            56  63    56            
 2000      2020 1 T  12.19  18.2  0.27                            36  41    36            
 2000      2030 1 T   27.3 40.79  0.61                            36  41    36            
 2000      2030 2 T  18.24 37.05  0.62                            49  55    49            
 2000      2070 1 T  25.55 38.16  0.57                            36  41    36            
 2000      2120 1 T  10.13 20.14  0.34                            49  55    49            
 2000      2140 1 T  15.44 31.29  0.53                            49  55    49            
 2000      2140 2 T  15.44 31.29  0.53                            49  55    49            
 2010      2190 1    30.13 45.81  0.68                            36  41    36            
 2011      2010 1      2.8 73.48         1.  0.9  1.1      -2011  15  2532  25            
 2020      2021 1 T    2.8 62.47         1.                 2021  15  20    20            
 2030      2031 1 T   2.35 48.84       0.950.8551.045       2031  20  2516  25            
 2030      2040 1      33. 28.48  0.38                            24  27    24            
 2030      2069 1     5.41  8.54  0.15                            36  41    36            
 2040      2041 1 T    5.8 80.19       0.950.8551.045       2041  1012.51612.5            
 2040      2050 1    53.33 46.06  0.61                            24  27    24            
 2051      2050 1     10.4123.52      1.0260.9231.128      -2051   56.25326.25            
 2070      2071 1 T    5.4 79.82       0.950.8551.045       2071  1012.51612.5            
 2070      2080 1    39.92 34.46  0.46                            24  27    24            
 2070      2080 2    14.73 29.91   0.5                            49  55    49            
 2070      2100 1    23.33 46.43  0.79                            49  55    49            
 2070      2230 1    12.86  19.6  0.28                            36  41    36            
 2070      2269 1 T   9.42  9.74  0.13                            32  35    32            
 2080      2090 1    48.18 41.61  0.55                            24  27    24            
 2081      2080 1     10.4130.99      1.0530.9471.158      -2081   56.25326.25            
 2091      2090 1     10.4124.29      1.0260.9231.128      -2091   5   532   5            
 2091      2090 2     10.4130.96      1.0260.9231.128      -2091   56.25326.25            
 2100      2101 1 T    5.4 81.02       0.950.8551.045       2101  1012.51612.5            
 2100      2101 2 T    5.4 80.92       0.950.8551.045       2101  1012.51612.5            
 2100    D 3010 1     29.5 44.42  0.65                            36  41    36            
 2100D     3020 1     0.07  0.11     0                            36  41    36            
 2120      2070 1    10.05 19.98  0.34                            49  55    49            
 2120      2121 1      5.4 80.72      0.9570.8611.052      -2121  1012.51612.5            
 2140      2079 1     2.55  4.28  0.06                            36  41    36            
 2140      2141 1 T    5.5 80.71       0.950.8551.045       2141  1012.51612.5            
 2140      2150 1     0.74  1.47  0.03                            49  55    49            
 2140      2170 1    15.89 13.71  0.18                            24  27    24            
 2140      2259 1 T   6.62  5.74  0.07                            24  27    24            
 2150      2089 1     6.25  5.39  0.07                            24  27    24            
 2150      2170 1     5.02  9.97  0.17                            49  55    49            
 2170      2180 1    12.49 18.64  0.28                            36  41    36            
 2170      2200 1     8.31 16.51  0.28                            49  55    49            
 2171      2170 1      5.4 63.53      0.9760.8781.073      -2171  1012.53212.5            
 2180      2181 1 T    5.4100.76       0.950.8551.045       2181  1012.51612.5            
 2180      2249 1 T   0.04  0.06     0                            36  41    36            
 2180      2249 2 T   0.04  0.06     0                            36  41    36            
 2190      2191 1 T    5.4 80.22       0.950.8080.998       2191  1012.51612.5            
 2190      2210 1    17.38 35.35  0.59                            49  55    49            
 2190      2220 1    13.49 22.67  0.34                            36  41    36            
 2200      2201 1 T    5.5 80.71       0.950.8551.045       2201  1012.51612.5            
 2211      2210 1     10.4 135.4         1.  0.9  1.1      -2211   5   516   5            
 2220      2090 1    11.95 20.08   0.3                            36  41    36            
 2221      2220 1     10.4128.48      1.0260.9231.128      -2221   5   516   5            
 2230      2100 1    22.03 33.61  0.48                            36  41    36            
 2230      2279 1 T  21.73 18.89  0.25                            24  27    24            
 3000      3010 1 T   4.13 10.48  0.18                            56  63    56            
 3000      3010 2 T   4.13 10.48  0.18                            56  63    56            
 3010      3011 1 T    5.4 79.12      0.9570.8611.052       3011  1012.51612.5            
 3010      3011 2 T    5.4 79.72      0.9570.8611.052       3011  1012.51612.5            
 3010      3020 1    29.43 43.97  0.66                            36  41    36            
 3010      3049 1      8.3 12.39  0.18                            36  41    36            
 3010      3059 1    15.26 25.67  0.39                            36  41    36            
 3020      3029 1     4.11  6.14  0.09                            36  41    36            
 4000      4010 1 T  41.45 62.06  0.93                            36  41    36            
 4010      4011 1 T   6.19 67.92      0.975                 4011  1012.5  12.5            
 4010      4011 2 T   8.44 98.31       0.98                 4011 7.59.38  9.38            
 4010      4020 1     9.14 15.06  0.24                            36  41    36            
 4021      4020 1     10.4124.11      1.0530.9471.158      -4021   56.25326.25            
 5000      5010 1 T   4.08  8.31  0.14                            49  55    49            
 5000      5010 2 T   4.08  8.11  0.14                            49  55    49            
 5000      5023 1     0.09   0.2     0                            56  63    56            
 5000      5030 1 T   2.77 12.61  0.23                            56  63    56            
 5000      5099 1 T   9.35 18.57  0.32                            49  55    49            
 5010      5011 1 T   2.35 50.85       0.950.8551.045       5011  20  2516  25            
 5010      5012 2 T   2.35 50.85       0.950.8551.045       5012  20  2516  25            
 5010      5020 1     2.45  5.38   0.1                            56  63    56            
 5010      5085 1     2.06  3.07  0.05                            36  41    36            
 5020      5021 1 T   2.35 49.84       0.950.8551.045       5021  20  2516  25            
 5020      5022 2 T   2.35 49.84       0.950.8551.045       5022  20  2516  25            
 5020      5045 1     1.21  2.59  0.05                            56  63    56            
 5023      5020 1      4.6 10.07  0.18                            56  63    56            
 5023    D 5070 1     1.89  8.01  0.17                            85  94    85            
 5030      5031 1 T   2.35  50.5         1. 0.85 1.05       5031  20  2516  25            
 5030      5050 1     5.44  8.11  0.12                            36  41    36            
 5045      5049 1     0.52  1.04  0.02                            49  55    49            
 5045      5070 1     0.33   0.7  0.01                            56  63    56            
 5050      5060 1     4.77  9.61  0.16                            49  55    49            
 5050    D 5099 1     1.31  1.95  0.03                            36  41    36            
 5061      5060 1 T   3.13 57.14      1.0260.9231.128      -5061  15  2532  25            
 5070      5071 1 T   2.35 63.91       0.950.8551.045       5071  20  2516  25            
 5070      5072 2 T   2.35 63.61       0.950.8551.045       5072  20  2516  25            
 5085      5030 1     1.23  1.91  0.03                            36  41    36            
 5085      5089 1     0.44  0.66  0.01                            36  41    36            
99999
DCAR
(tp) (no ) C (tp) (no ) C (tp) (no ) C (tp) (no ) O (A) (B) (C) (D) (Vfl)
99999
DGLT
(G (Vmn) (Vmx) (Vmne (Vmxe
 1   .95  1.05   .95  1.05
99999
DGBT
(G ( kV)
 2   69.
 1  13.8
99999
FIM
